<?xml version="1.0" encoding="UTF-8"?>

<!-- generated on 2025-12-02 15:29:52 by Eclipse SUMO netedit Version 1.24.0
<neteditConfiguration xmlns:xsi="http://www.w3.org/2001/XMLSchema-instance" xsi:noNamespaceSchemaLocation="http://sumo.dlr.de/xsd/neteditConfiguration.xsd">

    <input>
        <sumo-net-file value="C:\Users\laebli\OneDrive - ETH Zurich\Microscopic\SUMO\251128_SUMO_V1_morning\Bellevue_V1.net.xml"/>
    </input>

    <output>
        <output-file value="C:\Users\laebli\OneDrive - ETH Zurich\Microscopic\SUMO\251128_SUMO_V1_morning\Bellevue_V1.net.xml"/>
        <output.street-names value="true"/>
    </output>

    <processing>
        <geometry.min-radius.fix.railways value="false"/>
        <geometry.avoid-overlap value="false"/>
        <geometry.max-grade.fix value="false"/>
        <offset.disable-normalization value="true"/>
        <lefthand value="0"/>
    </processing>

    <junctions>
        <no-turnarounds value="true"/>
        <junctions.corner-detail value="5"/>
        <junctions.limit-turn-speed value="5.50"/>
        <rectangular-lane-cut value="0"/>
    </junctions>

    <pedestrian>
        <walkingareas value="0"/>
    </pedestrian>

</neteditConfiguration>
-->

<net version="1.20" junctionCornerDetail="5" limitTurnSpeed="5.50" avoidOverlap="0" xmlns:xsi="http://www.w3.org/2001/XMLSchema-instance" xsi:noNamespaceSchemaLocation="http://sumo.dlr.de/xsd/net_file.xsd">

    <location netOffset="-464579.37,-5244218.32" convBoundary="36.36,898.75,1469.98,2373.26" origBoundary="8.529768,47.218160,8.941477,47.388337" projParameter="+proj=utm +zone=32 +ellps=WGS84 +datum=WGS84 +units=m +no_defs"/>

    <type id="highway.cycleway" priority="1" numLanes="1" speed="5.56" allow="bicycle" oneway="0" width="2.00"/>
    <type id="highway.footway" priority="1" numLanes="1" speed="2.78" allow="pedestrian" oneway="1" width="2.00"/>
    <type id="highway.living_street" priority="2" numLanes="1" speed="2.78" disallow="tram rail_urban rail rail_electric rail_fast ship container cable_car subway aircraft wheelchair scooter drone" oneway="0"/>
    <type id="highway.path" priority="1" numLanes="1" speed="5.56" allow="pedestrian bicycle" oneway="0" width="2.00"/>
    <type id="highway.pedestrian" priority="1" numLanes="1" speed="2.78" allow="pedestrian" oneway="1" width="2.00"/>
    <type id="highway.primary" priority="12" numLanes="2" speed="27.78" disallow="tram rail_urban rail rail_electric rail_fast ship container cable_car subway aircraft wheelchair scooter drone" oneway="0"/>
    <type id="highway.primary_link" priority="7" numLanes="1" speed="22.22" disallow="tram rail_urban rail rail_electric rail_fast ship container cable_car subway aircraft wheelchair scooter drone" oneway="0"/>
    <type id="highway.residential" priority="3" numLanes="1" speed="13.89" disallow="tram rail_urban rail rail_electric rail_fast ship container cable_car subway aircraft wheelchair scooter drone" oneway="0"/>
    <type id="highway.secondary" priority="11" numLanes="1" speed="27.78" disallow="tram rail_urban rail rail_electric rail_fast ship container cable_car subway aircraft wheelchair scooter drone" oneway="0"/>
    <type id="highway.secondary_link" priority="6" numLanes="1" speed="22.22" disallow="tram rail_urban rail rail_electric rail_fast ship container cable_car subway aircraft wheelchair scooter drone" oneway="0"/>
    <type id="highway.service" priority="1" numLanes="1" speed="5.56" allow="pedestrian delivery bicycle" oneway="0"/>
    <type id="highway.service|psv" priority="1" numLanes="1" speed="13.89" allow="pedestrian bus delivery bicycle" oneway="0"/>
    <type id="highway.steps" priority="1" numLanes="1" speed="1.39" allow="pedestrian" oneway="1" width="2.00"/>
    <type id="highway.tertiary" priority="10" numLanes="1" speed="22.22" disallow="tram rail_urban rail rail_electric rail_fast ship container cable_car subway aircraft wheelchair scooter drone" oneway="0"/>
    <type id="highway.unclassified" priority="4" numLanes="1" speed="13.89" disallow="tram rail_urban rail rail_electric rail_fast ship container cable_car subway aircraft wheelchair scooter drone" oneway="0"/>
    <type id="railway.tram" priority="17" numLanes="1" speed="13.89" allow="tram" oneway="1"/>

    <edge id=":10313010748_0" function="internal">
        <lane id=":10313010748_0_0" index="0" allow="emergency authority pedestrian bicycle" speed="5.56" length="4.82" width="2.00" shape="1142.57,1507.13 1140.84,1511.63"/>
    </edge>
    <edge id=":10313010748_1" function="internal">
        <lane id=":10313010748_1_0" index="0" allow="emergency authority pedestrian bicycle" speed="2.89" length="0.79" width="2.00" shape="1142.57,1507.13 1141.91,1507.57"/>
    </edge>
    <edge id=":10313010748_4" function="internal">
        <lane id=":10313010748_4_0" index="0" allow="emergency authority pedestrian bicycle" speed="2.89" length="2.13" width="2.00" shape="1141.91,1507.57 1141.82,1507.63 1141.26,1507.67 1140.90,1507.25 1140.73,1506.36"/>
    </edge>
    <edge id=":10313010748_2" function="internal">
        <lane id=":10313010748_2_0" index="0" allow="emergency authority pedestrian bicycle" speed="5.56" length="4.94" width="2.00" shape="1138.96,1510.97 1140.73,1506.36"/>
    </edge>
    <edge id=":10313010748_3" function="internal">
        <lane id=":10313010748_3_0" index="0" allow="emergency authority pedestrian bicycle" speed="2.89" length="2.46" width="2.00" shape="1138.96,1510.97 1139.68,1510.43 1140.23,1510.36 1140.62,1510.76 1140.73,1511.18"/>
    </edge>
    <edge id=":10313010748_5" function="internal">
        <lane id=":10313010748_5_0" index="0" allow="emergency authority pedestrian bicycle" speed="2.89" length="0.47" width="2.00" shape="1140.73,1511.18 1140.84,1511.63"/>
    </edge>
    <edge id=":10313010750_0" function="internal">
        <lane id=":10313010750_0_0" index="0" allow="emergency authority pedestrian" speed="2.78" length="5.00" width="2.00" shape="1123.29,1521.28 1121.44,1525.92"/>
    </edge>
    <edge id=":10313010750_1" function="internal">
        <lane id=":10313010750_1_0" index="0" allow="emergency authority pedestrian" speed="2.78" length="2.92" width="2.00" shape="1123.29,1521.28 1122.55,1521.79 1121.99,1521.83 1121.62,1521.41 1121.44,1520.53"/>
    </edge>
    <edge id=":10313010750_2" function="internal">
        <lane id=":10313010750_2_0" index="0" allow="emergency authority pedestrian" speed="2.78" length="5.00" width="2.00" shape="1119.58,1525.18 1121.44,1520.53"/>
    </edge>
    <edge id=":10313010750_3" function="internal">
        <lane id=":10313010750_3_0" index="0" allow="emergency authority pedestrian" speed="2.78" length="2.92" width="2.00" shape="1119.58,1525.18 1120.32,1524.67 1120.88,1524.62 1121.25,1525.04 1121.44,1525.92"/>
    </edge>
    <edge id=":1037128990_0" function="internal">
        <lane id=":1037128990_0_0" index="0" disallow="pedestrian tram rail_urban rail rail_electric rail_fast ship container cable_car subway aircraft wheelchair scooter drone" speed="13.89" length="0.29" width="2.50" shape="1387.85,1800.42 1387.61,1800.58"/>
    </edge>
    <edge id=":1037128990_1" function="internal">
        <lane id=":1037128990_1_0" index="0" disallow="pedestrian tram rail_urban rail rail_electric rail_fast ship container cable_car subway aircraft wheelchair scooter drone" speed="13.89" length="0.31" width="2.50" shape="1386.22,1798.50 1386.48,1798.33"/>
    </edge>
    <edge id=":1042897419_0" function="internal">
        <lane id=":1042897419_0_0" index="0" disallow="pedestrian tram rail_urban rail rail_electric rail_fast ship container cable_car subway aircraft wheelchair scooter drone" speed="8.33" length="9.62" shape="782.24,1913.01 784.10,1903.57"/>
    </edge>
    <edge id=":10559109778_0" function="internal">
        <lane id=":10559109778_0_0" index="0" disallow="pedestrian tram rail_urban rail rail_electric rail_fast ship container cable_car subway aircraft wheelchair scooter drone" speed="13.89" length="0.10" shape="241.92,1341.61 241.92,1341.61"/>
    </edge>
    <edge id=":10559109778_1" function="internal">
        <lane id=":10559109778_1_0" index="0" disallow="pedestrian tram rail_urban rail rail_electric rail_fast ship container cable_car subway aircraft wheelchair scooter drone" speed="13.89" length="0.10" shape="242.04,1338.41 242.04,1338.41"/>
    </edge>
    <edge id=":1073526055_0" function="internal">
        <lane id=":1073526055_0_0" index="0" disallow="pedestrian tram rail_urban rail rail_electric rail_fast ship container cable_car subway aircraft wheelchair scooter drone" speed="13.89" length="0.56" shape="299.56,1434.50 299.81,1434.54 299.97,1434.57 300.14,1434.62 300.37,1434.70"/>
        <lane id=":1073526055_0_1" index="1" disallow="pedestrian tram rail_urban rail rail_electric rail_fast ship container cable_car subway aircraft wheelchair scooter drone" speed="13.89" length="0.56" shape="299.05,1437.65 299.13,1437.67 299.18,1437.68 299.24,1437.70 299.32,1437.72"/>
    </edge>
    <edge id=":10766614547_0" function="internal">
        <lane id=":10766614547_0_0" index="0" allow="tram" speed="13.89" length="0.25" shape="843.10,1798.61 842.86,1798.54"/>
    </edge>
    <edge id=":10766614548_0" function="internal">
        <lane id=":10766614548_0_0" index="0" allow="tram" speed="13.89" length="0.30" shape="821.12,1790.79 820.84,1790.69"/>
    </edge>
    <edge id=":10821411458_0" function="internal">
        <lane id=":10821411458_0_0" index="0" disallow="pedestrian tram rail_urban rail rail_electric rail_fast ship container cable_car subway aircraft wheelchair scooter drone" speed="8.33" length="8.05" width="4.75" shape="430.59,1606.29 429.63,1608.47 429.14,1610.04 428.64,1611.60 427.68,1613.78"/>
    </edge>
    <edge id=":10821411458_1" function="internal">
        <lane id=":10821411458_1_0" index="0" disallow="pedestrian tram rail_urban rail rail_electric rail_fast ship container cable_car subway aircraft wheelchair scooter drone" speed="8.33" length="8.25" width="3.17" shape="423.44,1611.63 424.21,1609.30 424.19,1607.53 424.18,1605.75 424.94,1603.42"/>
        <lane id=":10821411458_1_1" index="1" disallow="pedestrian tram rail_urban rail rail_electric rail_fast ship container cable_car subway aircraft wheelchair scooter drone" speed="8.33" length="8.25" width="3.17" shape="423.44,1611.63 424.63,1609.56 425.60,1608.24 426.58,1606.92 427.77,1604.86"/>
    </edge>
    <edge id=":10836944686_0" function="internal">
        <lane id=":10836944686_0_0" index="0" allow="emergency authority bicycle" speed="4.69" length="4.58" width="2.00" shape="1076.39,1761.35 1074.83,1761.44 1073.71,1761.80 1073.03,1762.43 1072.79,1763.31"/>
    </edge>
    <edge id=":10836944686_1" function="internal">
        <lane id=":10836944686_1_0" index="0" allow="emergency authority bicycle" speed="5.56" length="10.72" width="2.00" shape="1076.39,1761.35 1073.30,1761.44 1071.01,1761.64 1068.74,1761.65 1065.72,1761.16"/>
    </edge>
    <edge id=":10836944686_2" function="internal">
        <lane id=":10836944686_2_0" index="0" allow="emergency authority bicycle" speed="2.89" length="2.92" width="2.00" shape="1076.39,1761.35 1075.65,1760.83 1075.41,1760.33 1075.67,1759.83 1076.43,1759.35"/>
    </edge>
    <edge id=":10836944686_3" function="internal">
        <lane id=":10836944686_3_0" index="0" disallow="tram rail_urban rail rail_electric rail_fast ship container cable_car subway aircraft wheelchair scooter drone" speed="13.89" length="6.34" shape="1072.90,1756.97 1072.79,1763.31"/>
        <lane id=":10836944686_3_1" index="1" disallow="tram rail_urban rail rail_electric rail_fast ship container cable_car subway aircraft wheelchair scooter drone" speed="13.89" length="6.34" shape="1069.70,1756.91 1069.59,1763.26"/>
    </edge>
    <edge id=":10836944686_5" function="internal">
        <lane id=":10836944686_5_0" index="0" allow="emergency authority bicycle" speed="5.56" length="10.43" width="2.00" shape="1066.00,1759.15 1076.43,1759.35"/>
    </edge>
    <edge id=":10836944686_6" function="internal">
        <lane id=":10836944686_6_0" index="0" allow="emergency authority bicycle" speed="5.37" length="6.21" width="2.00" shape="1066.00,1759.15 1067.60,1759.44 1068.73,1760.21 1069.39,1761.49 1069.59,1763.26"/>
    </edge>
    <edge id=":10836944686_7" function="internal">
        <lane id=":10836944686_7_0" index="0" allow="emergency authority bicycle" speed="2.97" length="2.96" width="2.00" shape="1066.00,1759.15 1066.68,1759.76 1066.86,1760.30 1066.54,1760.76 1065.72,1761.16"/>
    </edge>
    <edge id=":10836944687_0" function="internal">
        <lane id=":10836944687_0_0" index="0" allow="emergency authority bicycle" speed="5.56" length="13.80" width="2.00" shape="1065.53,1761.11 1062.05,1760.32 1058.79,1759.61 1055.51,1759.00 1051.98,1758.49"/>
    </edge>
    <edge id=":10836944687_1" function="internal">
        <lane id=":10836944687_1_0" index="0" allow="emergency authority bicycle" speed="5.20" length="6.81" width="2.00" shape="1065.53,1761.11 1063.68,1760.41 1062.63,1759.35 1062.40,1757.92 1062.98,1756.12"/>
    </edge>
    <edge id=":10836944687_2" function="internal">
        <lane id=":10836944687_2_0" index="0" allow="emergency authority bicycle" speed="2.95" length="2.90" width="2.00" shape="1065.53,1761.11 1064.86,1760.52 1064.68,1759.99 1065.00,1759.54 1065.80,1759.15"/>
    </edge>
    <edge id=":10836944687_3" function="internal">
        <lane id=":10836944687_3_0" index="0" allow="emergency authority bicycle" speed="7.07" length="8.32" width="2.00" shape="1052.43,1756.53 1055.31,1756.71 1057.54,1756.46 1059.14,1755.79 1060.11,1754.70"/>
    </edge>
    <edge id=":10836944687_4" function="internal">
        <lane id=":10836944687_4_0" index="0" allow="emergency authority bicycle" speed="5.56" length="13.65" width="2.00" shape="1052.43,1756.53 1055.91,1757.18 1059.10,1758.03 1062.30,1758.79 1065.80,1759.15"/>
    </edge>
    <edge id=":10836944687_5" function="internal">
        <lane id=":10836944687_5_0" index="0" allow="emergency authority bicycle" speed="2.89" length="2.94" width="2.00" shape="1052.43,1756.53 1053.05,1757.19 1053.19,1757.74 1052.83,1758.17 1051.98,1758.49"/>
    </edge>
    <edge id=":10836944687_6" function="internal">
        <lane id=":10836944687_6_0" index="0" disallow="tram rail_urban rail rail_electric rail_fast ship container cable_car subway aircraft wheelchair scooter drone" speed="13.89" length="10.60" shape="1055.42,1764.16 1060.11,1754.70"/>
        <lane id=":10836944687_6_1" index="1" disallow="tram rail_urban rail rail_electric rail_fast ship container cable_car subway aircraft wheelchair scooter drone" speed="13.89" length="10.60" shape="1058.25,1765.66 1062.98,1756.12"/>
    </edge>
    <edge id=":10836944688_0" function="internal">
        <lane id=":10836944688_0_0" index="0" allow="emergency authority bicycle" speed="5.56" length="1.81" width="2.00" shape="1078.40,1761.41 1076.59,1761.35"/>
    </edge>
    <edge id=":10836944688_1" function="internal">
        <lane id=":10836944688_1_0" index="0" allow="emergency authority bicycle" speed="2.89" length="1.46" width="2.00" shape="1078.40,1761.41 1077.67,1760.88 1077.44,1760.37"/>
    </edge>
    <edge id=":10836944688_4" function="internal">
        <lane id=":10836944688_4_0" index="0" allow="emergency authority bicycle" speed="2.89" length="1.46" width="2.00" shape="1077.44,1760.37 1077.71,1759.88 1078.48,1759.42"/>
    </edge>
    <edge id=":10836944688_2" function="internal">
        <lane id=":10836944688_2_0" index="0" allow="emergency authority bicycle" speed="5.56" length="1.85" width="2.00" shape="1076.63,1759.35 1078.48,1759.42"/>
    </edge>
    <edge id=":10836944688_3" function="internal">
        <lane id=":10836944688_3_0" index="0" allow="emergency authority bicycle" speed="2.89" length="1.46" width="2.00" shape="1076.63,1759.35 1077.37,1759.87 1077.61,1760.37"/>
    </edge>
    <edge id=":10836944688_5" function="internal">
        <lane id=":10836944688_5_0" index="0" allow="emergency authority bicycle" speed="2.89" length="1.46" width="2.00" shape="1077.61,1760.37 1077.35,1760.87 1076.59,1761.35"/>
    </edge>
    <edge id=":10870333631_0" function="internal">
        <lane id=":10870333631_0_0" index="0" allow="tram" speed="13.89" length="0.30" shape="308.07,1446.90 308.35,1447.02"/>
    </edge>
    <edge id=":10870333663_0" function="internal">
        <lane id=":10870333663_0_0" index="0" disallow="pedestrian tram rail_urban rail rail_electric rail_fast ship container cable_car subway aircraft wheelchair scooter drone" speed="13.89" length="8.04" width="2.67" shape="486.27,1578.64 484.18,1577.48 482.53,1577.09 480.87,1576.70 478.76,1575.57"/>
        <lane id=":10870333663_0_1" index="1" disallow="pedestrian tram rail_urban rail rail_electric rail_fast ship container cable_car subway aircraft wheelchair scooter drone" speed="13.89" length="8.04" width="2.67" shape="486.27,1578.64 484.44,1577.16 483.30,1576.00 482.15,1574.85 480.30,1573.38"/>
        <lane id=":10870333663_0_2" index="2" disallow="pedestrian tram rail_urban rail rail_electric rail_fast ship container cable_car subway aircraft wheelchair scooter drone" speed="13.89" length="8.04" width="2.67" shape="488.15,1576.05 481.83,1571.20"/>
    </edge>
    <edge id=":10870333663_3" function="internal">
        <lane id=":10870333663_3_0" index="0" disallow="pedestrian tram rail_urban rail rail_electric rail_fast ship container cable_car subway aircraft wheelchair scooter drone" speed="13.89" length="8.16" width="3.20" shape="486.46,1564.65 488.55,1565.88 490.14,1566.45 491.72,1567.04 493.80,1568.29"/>
        <lane id=":10870333663_3_1" index="1" disallow="pedestrian tram rail_urban rail rail_electric rail_fast ship container cable_car subway aircraft wheelchair scooter drone" speed="13.89" length="8.16" width="3.20" shape="484.92,1566.83 486.94,1568.11 488.43,1568.84 489.91,1569.57 491.91,1570.88"/>
    </edge>
    <edge id=":10870333675_0" function="internal">
        <lane id=":10870333675_0_0" index="0" disallow="pedestrian tram rail_urban rail rail_electric rail_fast ship container cable_car subway aircraft wheelchair scooter drone" speed="8.33" length="8.25" width="3.17" shape="350.57,1768.83 349.84,1771.17 349.88,1772.94 349.93,1774.72 349.20,1777.06"/>
        <lane id=":10870333675_0_1" index="1" disallow="pedestrian tram rail_urban rail rail_electric rail_fast ship container cable_car subway aircraft wheelchair scooter drone" speed="8.33" length="8.25" width="3.17" shape="350.57,1768.83 349.41,1770.91 348.46,1772.25 347.51,1773.58 346.35,1775.67"/>
    </edge>
    <edge id=":10870333675_2" function="internal">
        <lane id=":10870333675_2_0" index="0" disallow="pedestrian tram rail_urban rail rail_electric rail_fast ship container cable_car subway aircraft wheelchair scooter drone" speed="8.33" length="8.05" width="4.75" shape="343.50,1774.28 344.43,1772.09 344.90,1770.51 345.37,1768.94 346.30,1766.74"/>
    </edge>
    <edge id=":10870333676_0" function="internal">
        <lane id=":10870333676_0_0" index="0" disallow="pedestrian tram rail_urban rail rail_electric rail_fast ship container cable_car subway aircraft wheelchair scooter drone" speed="8.33" length="0.10" width="4.75" shape="415.20,1638.44 415.20,1638.44"/>
    </edge>
    <edge id=":10870333676_1" function="internal">
        <lane id=":10870333676_1_0" index="0" disallow="pedestrian tram rail_urban rail rail_electric rail_fast ship container cable_car subway aircraft wheelchair scooter drone" speed="8.33" length="0.10" width="4.75" shape="410.96,1636.30 410.96,1636.30"/>
    </edge>
    <edge id=":10870333678_0" function="internal">
        <lane id=":10870333678_0_0" index="0" disallow="pedestrian tram rail_urban rail rail_electric rail_fast ship container cable_car subway aircraft wheelchair scooter drone" speed="13.89" length="8.05" width="4.50" shape="321.63,1826.18 320.71,1828.38 320.24,1829.95 319.77,1831.52 318.85,1833.72"/>
    </edge>
    <edge id=":10870333678_1" function="internal">
        <lane id=":10870333678_1_0" index="0" disallow="pedestrian tram rail_urban rail rail_electric rail_fast ship container cable_car subway aircraft wheelchair scooter drone" speed="13.89" length="8.23" width="3.00" shape="314.79,1831.78 315.52,1829.44 315.51,1827.68 315.49,1825.92 316.22,1823.59"/>
        <lane id=":10870333678_1_1" index="1" disallow="pedestrian tram rail_urban rail rail_electric rail_fast ship container cable_car subway aircraft wheelchair scooter drone" speed="13.89" length="8.23" width="3.00" shape="314.79,1831.78 315.93,1829.68 316.86,1828.33 317.79,1826.98 318.92,1824.88"/>
    </edge>
    <edge id=":10873846857_0" function="internal">
        <lane id=":10873846857_0_0" index="0" allow="tram" speed="13.89" length="4.96" shape="755.54,1771.13 754.08,1770.92 753.08,1770.76 752.08,1770.66 750.61,1770.60"/>
    </edge>
    <edge id=":10873846863_0" function="internal">
        <lane id=":10873846863_0_0" index="0" disallow="pedestrian tram rail_urban rail rail_electric rail_fast ship container cable_car subway aircraft wheelchair scooter drone" speed="13.89" length="2.51" width="3.33" shape="705.64,1786.89 703.99,1785.73"/>
        <lane id=":10873846863_0_1" index="1" disallow="pedestrian tram rail_urban rail rail_electric rail_fast ship container cable_car subway aircraft wheelchair scooter drone" speed="13.89" length="2.51" width="3.33" shape="709.40,1787.49 706.52,1787.89"/>
        <lane id=":10873846863_0_2" index="2" disallow="pedestrian tram rail_urban rail rail_electric rail_fast ship container cable_car subway aircraft wheelchair scooter drone" speed="13.89" length="2.51" width="3.33" shape="709.40,1787.49 709.05,1790.06"/>
    </edge>
    <edge id=":10873846877_0" function="internal">
        <lane id=":10873846877_0_0" index="0" allow="tram" speed="13.89" length="2.99" shape="720.18,1795.38 720.90,1792.48"/>
    </edge>
    <edge id=":10883998813_0" function="internal">
        <lane id=":10883998813_0_0" index="0" disallow="pedestrian tram rail_urban rail rail_electric rail_fast ship container cable_car subway aircraft wheelchair scooter drone" speed="8.33" length="0.10" width="2.50" shape="506.28,1758.92 506.27,1758.92"/>
    </edge>
    <edge id=":10883998813_1" function="internal">
        <lane id=":10883998813_1_0" index="0" disallow="pedestrian tram rail_urban rail rail_electric rail_fast ship container cable_car subway aircraft wheelchair scooter drone" speed="8.33" length="0.10" width="2.50" shape="507.43,1756.70 507.42,1756.70"/>
    </edge>
    <edge id=":10883998848_0" function="internal">
        <lane id=":10883998848_0_0" index="0" disallow="pedestrian tram rail_urban rail rail_electric rail_fast ship container cable_car subway aircraft wheelchair scooter drone" speed="8.33" length="0.10" width="3.00" shape="552.39,1751.08 552.39,1751.08"/>
    </edge>
    <edge id=":10883998848_1" function="internal">
        <lane id=":10883998848_1_0" index="0" disallow="pedestrian tram rail_urban rail rail_electric rail_fast ship container cable_car subway aircraft wheelchair scooter drone" speed="8.33" length="0.10" width="3.00" shape="549.71,1749.74 549.71,1749.74"/>
    </edge>
    <edge id=":10923648284_0" function="internal">
        <lane id=":10923648284_0_0" index="0" allow="pedestrian delivery bicycle" speed="5.56" length="0.30" shape="1185.84,1697.41 1185.67,1697.66"/>
    </edge>
    <edge id=":10923648284_1" function="internal">
        <lane id=":10923648284_1_0" index="0" allow="pedestrian delivery bicycle" speed="5.56" length="0.30" shape="1183.04,1695.85 1183.21,1695.60"/>
    </edge>
    <edge id=":1097766819_0" function="internal">
        <lane id=":1097766819_0_0" index="0" disallow="pedestrian tram rail_urban rail rail_electric rail_fast ship container cable_car subway aircraft wheelchair scooter drone" speed="13.89" length="0.29" shape="296.70,1343.55 296.40,1343.54"/>
    </edge>
    <edge id=":1097766819_1" function="internal">
        <lane id=":1097766819_1_0" index="0" disallow="pedestrian tram rail_urban rail rail_electric rail_fast ship container cable_car subway aircraft wheelchair scooter drone" speed="13.89" length="0.30" shape="296.52,1340.35 296.82,1340.36"/>
    </edge>
    <edge id=":11242255871_0" function="internal">
        <lane id=":11242255871_0_0" index="0" allow="tram rail_urban" speed="13.89" length="4.97" shape="1226.73,1715.81 1226.25,1714.43 1225.99,1713.44 1225.90,1712.44 1225.88,1710.97"/>
    </edge>
    <edge id=":11242255883_0" function="internal">
        <lane id=":11242255883_0_0" index="0" allow="tram" speed="13.89" length="3.41" shape="1217.85,1720.26 1216.92,1719.86 1216.26,1719.62 1215.58,1719.47 1214.58,1719.35"/>
    </edge>
    <edge id=":1275794002_0" function="internal">
        <lane id=":1275794002_0_0" index="0" disallow="pedestrian tram rail_urban rail rail_electric rail_fast ship container cable_car subway aircraft wheelchair scooter drone" speed="11.11" length="0.10" shape="491.86,1968.78 491.86,1968.78"/>
    </edge>
    <edge id=":1275794024_0" function="internal">
        <lane id=":1275794024_0_0" index="0" disallow="pedestrian tram rail_urban rail rail_electric rail_fast ship container cable_car subway aircraft wheelchair scooter drone" speed="8.33" length="3.47" shape="501.56,1952.12 500.91,1952.83 500.18,1953.07 499.45,1953.32 498.83,1954.05"/>
    </edge>
    <edge id=":1275794024_1" function="internal">
        <lane id=":1275794024_1_0" index="0" disallow="pedestrian tram rail_urban rail rail_electric rail_fast ship container cable_car subway aircraft wheelchair scooter drone" speed="3.65" length="4.67" shape="501.56,1952.12 500.30,1952.82 499.41,1952.82 498.87,1952.10 498.70,1950.67"/>
    </edge>
    <edge id=":13144402088_0" function="internal">
        <lane id=":13144402088_0_0" index="0" allow="tram" speed="13.89" length="2.84" shape="1221.61,1699.94 1219.46,1701.79"/>
    </edge>
    <edge id=":13144477689_0" function="internal">
        <lane id=":13144477689_0_0" index="0" allow="tram rail_urban" speed="13.89" length="0.30" shape="1350.35,1738.10 1350.61,1737.96"/>
    </edge>
    <edge id=":1388636801_0" function="internal">
        <lane id=":1388636801_0_0" index="0" disallow="pedestrian tram rail_urban rail rail_electric rail_fast ship container cable_car subway aircraft wheelchair scooter drone" speed="13.89" length="0.40" shape="262.23,1999.73 262.14,2000.12"/>
    </edge>
    <edge id=":1388636801_1" function="internal">
        <lane id=":1388636801_1_0" index="0" disallow="pedestrian tram rail_urban rail rail_electric rail_fast ship container cable_car subway aircraft wheelchair scooter drone" speed="13.89" length="0.11" shape="252.82,1997.84 252.84,1997.74"/>
    </edge>
    <edge id=":1388659061_0" function="internal">
        <lane id=":1388659061_0_0" index="0" disallow="pedestrian tram rail_urban rail rail_electric rail_fast ship container cable_car subway aircraft wheelchair scooter drone" speed="13.89" length="0.31" shape="466.33,2128.61 466.09,2128.82"/>
    </edge>
    <edge id=":1388659061_1" function="internal">
        <lane id=":1388659061_1_0" index="0" disallow="pedestrian tram rail_urban rail rail_electric rail_fast ship container cable_car subway aircraft wheelchair scooter drone" speed="13.89" length="0.27" shape="463.97,2126.43 464.17,2126.25"/>
    </edge>
    <edge id=":1396809773_0" function="internal">
        <lane id=":1396809773_0_0" index="0" disallow="tram rail_urban rail rail_electric rail_fast ship container cable_car subway aircraft wheelchair scooter drone" speed="5.56" length="0.29" shape="1222.74,1839.83 1222.57,1840.07"/>
    </edge>
    <edge id=":1396809773_1" function="internal">
        <lane id=":1396809773_1_0" index="0" disallow="tram rail_urban rail rail_electric rail_fast ship container cable_car subway aircraft wheelchair scooter drone" speed="5.56" length="0.31" shape="1219.94,1838.26 1220.11,1838.00"/>
    </edge>
    <edge id=":1396809782_0" function="internal">
        <lane id=":1396809782_0_0" index="0" disallow="tram rail_urban rail rail_electric rail_fast ship container cable_car subway aircraft wheelchair scooter drone" speed="5.56" length="0.31" shape="1208.49,1860.52 1208.31,1860.78"/>
    </edge>
    <edge id=":1396809782_1" function="internal">
        <lane id=":1396809782_1_0" index="0" disallow="tram rail_urban rail rail_electric rail_fast ship container cable_car subway aircraft wheelchair scooter drone" speed="5.56" length="0.25" shape="1205.71,1858.91 1205.85,1858.71"/>
    </edge>
    <edge id=":1480393914_0" function="internal">
        <lane id=":1480393914_0_0" index="0" disallow="tram rail_urban rail rail_electric rail_fast ship container cable_car subway aircraft wheelchair scooter drone" speed="8.61" length="5.73" shape="1187.87,1992.09 1187.38,1990.46 1186.90,1989.37 1186.12,1988.49 1184.76,1987.52"/>
    </edge>
    <edge id=":1480393914_1" function="internal">
        <lane id=":1480393914_1_0" index="0" disallow="tram rail_urban rail rail_electric rail_fast ship container cable_car subway aircraft wheelchair scooter drone" speed="3.65" length="1.44" shape="1187.87,1992.09 1188.30,1990.71"/>
    </edge>
    <edge id=":1480393914_4" function="internal">
        <lane id=":1480393914_4_0" index="0" disallow="tram rail_urban rail rail_electric rail_fast ship container cable_car subway aircraft wheelchair scooter drone" speed="3.65" length="3.23" shape="1188.30,1990.71 1188.95,1990.09 1189.83,1990.25 1190.94,1991.17"/>
    </edge>
    <edge id=":1480393914_2" function="internal">